Circuit: * C:\Users\Marcelo\Documents\GitHub\TP1_Electro1\2daParte\Sim_AmplificadorEj2.asc

Direct Newton iteration for .op point succeeded.

Date: Tue Sep 04 19:44:21 2018
Total elapsed time: 0.797 seconds.

tnom = 27
temp = 27
method = modified trap
totiter = 60047
traniter = 60040
tranpoints = 30021
accept = 30021
rejected = 0
matrix size = 12
fillins = 0
solver = Normal
Matrix Compiler1: off  [0.1]/0.1/0.1
Matrix Compiler2:      74 opcodes  0.1/[0.0]/0.1

