Circuit: * C:\Users\Marcelo\Documents\GitHub\TP1_Electro1\2daParte\Sim_AmplificadorEj2.asc

Direct Newton iteration for .op point succeeded.

Date: Tue Sep 04 17:57:01 2018
Total elapsed time: 0.046 seconds.

tnom = 27
temp = 27
method = modified trap
totiter = 7405
traniter = 7398
tranpoints = 3420
accept = 3257
rejected = 163
matrix size = 12
fillins = 0
solver = Normal
Matrix Compiler1: 624 bytes object code size  0.1/0.1/[0.1]
Matrix Compiler2: off  [0.1]/0.1/0.1

