Circuit: * C:\Users\Marcelo\Documents\GitHub\TP1_Electro1\2daParte\Sim_AmplificadorEj2.asc

Direct Newton iteration for .op point succeeded.

Date: Wed Sep 05 11:29:02 2018
Total elapsed time: 0.844 seconds.

tnom = 27
temp = 27
method = modified trap
totiter = 60047
traniter = 60040
tranpoints = 30021
accept = 30021
rejected = 0
matrix size = 12
fillins = 0
solver = Normal
Matrix Compiler1: 624 bytes object code size  0.1/0.1/[0.1]
Matrix Compiler2:      74 opcodes  0.1/[0.1]/0.1

