Circuit: * C:\Users\Marcelo\Documents\GitHub\TP1_Electro1\2daParte\Simulacion\Sim_AmplificadorEj2.asc

Direct Newton iteration for .op point succeeded.
.step amp=0
.step amp=0.005
.step amp=0.01
.step amp=0.015
.step amp=0.02
.step amp=0.025
.step amp=0.03
.step amp=0.035
.step amp=0.04
.step amp=0.045
.step amp=0.05

Date: Mon Sep 17 00:41:54 2018
Total elapsed time: 0.328 seconds.

tnom = 27
temp = 27
method = modified trap
totiter = 1058
traniter = 1050
tranpoints = 521
accept = 521
rejected = 0
matrix size = 12
fillins = 0
solver = Normal
Matrix Compiler1: 624 bytes object code size  0.1/0.1/[0.1]
Matrix Compiler2: 920 bytes object code size  0.1/0.1/[0.1]

