Circuit: * C:\Users\Marcelo\Documents\GitHub\TP1_Electro1\2daParte\Simulacion\Sim_AmplificadorEj2.asc

Direct Newton iteration for .op point succeeded.

Date: Tue Sep 11 08:12:43 2018
Total elapsed time: 0.047 seconds.

tnom = 27
temp = 27
method = trap
totiter = 8
traniter = 0
tranpoints = 0
accept = 0
rejected = 0
matrix size = 12
fillins = 0
solver = Normal
Matrix Compiler1:      36 opcodes
Matrix Compiler2: 920 bytes object code size
