Circuit: * C:\Users\Marcelo\Documents\GitHub\TP1_Electro1\2daParte\Simulacion\Sim_AmplificadorEj2.asc

Direct Newton iteration for .op point succeeded.

Date: Wed Sep 19 11:02:00 2018
Total elapsed time: 0.034 seconds.

tnom = 27
temp = 27
method = trap
totiter = 8
traniter = 0
tranpoints = 0
accept = 0
rejected = 0
matrix size = 13
fillins = 0
solver = Normal
Matrix Compiler1:      39 opcodes
Matrix Compiler2: 993 bytes object code size
