Circuit: * C:\Users\Marcelo\Documents\GitHub\TP1_Electro1\2daParte\Simulacion\Sim_AmplificadorEj2.asc

Direct Newton iteration for .op point succeeded.

Date: Sun Sep 16 16:31:31 2018
Total elapsed time: 0.052 seconds.

tnom = 27
temp = 27
method = modified trap
totiter = 1058
traniter = 1050
tranpoints = 521
accept = 521
rejected = 0
matrix size = 12
fillins = 0
solver = Normal
Matrix Compiler1: 624 bytes object code size  0.2/0.1/[0.1]
Matrix Compiler2: 920 bytes object code size  0.1/0.1/[0.1]

