Circuit: * C:\Users\Marcelo\Documents\GitHub\TP1_Electro1\1erParte\Diodo 1N4734\Sim_Zener.asc


Date: Tue Sep 04 17:19:43 2018
Total elapsed time: 0.125 seconds.

tnom = 27
temp = 27
method = trap
totiter = 2611
traniter = 0
tranpoints = 0
accept = 0
rejected = 0
matrix size = 4
fillins = 0
solver = Normal
Matrix Compiler1:       6 opcodes  0.1/[0.0]/0.1
Matrix Compiler2: off  [0.0]/0.1/0.0

