Circuit: * C:\Users\Marcelo\Documents\GitHub\TP1_Electro1\1erParte\b.Diodo Zener\Simulacion\Sim_Zener.asc


Date: Sat Sep 15 20:02:09 2018
Total elapsed time: 0.073 seconds.

tnom = 27
temp = 27
method = trap
totiter = 341
traniter = 0
tranpoints = 0
accept = 0
rejected = 0
matrix size = 4
fillins = 0
solver = Normal
Matrix Compiler1:       6 opcodes  0.0/[0.0]/0.0
Matrix Compiler2: off  [0.0]/0.0/0.1

