Circuit: * C:\Users\Marcelo\Documents\GitHub\TP1_Electro1\1erParte\a.Diodo Rectificador\Simulacion\Sim_1N4007.asc

.OP point found by inspection.

Date: Wed Sep 12 14:55:26 2018
Total elapsed time: 0.058 seconds.

tnom = 27
temp = 27
method = trap
totiter = 47
traniter = 0
tranpoints = 0
accept = 0
rejected = 0
matrix size = 4
fillins = 0
solver = Normal
Matrix Compiler1: 100 bytes object code size
Matrix Compiler2: 248 bytes object code size
