Circuit: * C:\Users\Marcelo\Documents\GitHub\TP1_Electro1\3raParte\Simulacion\Sim_Ej3.asc

Direct Newton iteration for .op point succeeded.

Date: Wed Sep 19 16:51:59 2018
Total elapsed time: 0.052 seconds.

tnom = 27
temp = 27
method = trap
totiter = 13
traniter = 0
tranpoints = 0
accept = 0
rejected = 0
matrix size = 8
fillins = 0
solver = Normal
Matrix Compiler1:      13 opcodes
Matrix Compiler2: 472 bytes object code size
