Circuit: * C:\Users\Marcelo\Documents\GitHub\TP1_Electro1\3raParte\Simulacion\Sim_Ej3.asc

Direct Newton iteration for .op point succeeded.

Date: Tue Sep 11 20:15:02 2018
Total elapsed time: 0.062 seconds.

tnom = 27
temp = 27
method = trap
totiter = 13
traniter = 0
tranpoints = 0
accept = 0
rejected = 0
matrix size = 7
fillins = 0
solver = Normal
Matrix Compiler1:      12 opcodes
Matrix Compiler2: 433 bytes object code size
