Circuit: * C:\Users\Marcelo\Documents\GitHub\TP1_Electro1\1erParte\Diodo\Simulacion\Sim_1N4007.asc

.OP point found by inspection.

Date: Mon Sep 03 16:56:26 2018
Total elapsed time: 0.047 seconds.

tnom = 27
temp = 27
method = trap
totiter = 401
traniter = 0
tranpoints = 0
accept = 0
rejected = 0
matrix size = 4
fillins = 0
solver = Normal
Matrix Compiler1: 100 bytes object code size  0.0/0.0/[0.0]
Matrix Compiler2: 248 bytes object code size  0.0/0.0/[0.0]

