Circuit: * C:\Users\Marcelo\Documents\GitHub\TP1_Electro1\1erParte\Diodo 6.8V\Sim_Zener.asc


Date: Tue Sep 04 12:48:30 2018
Total elapsed time: 0.094 seconds.

tnom = 27
temp = 27
method = trap
totiter = 2611
traniter = 0
tranpoints = 0
accept = 0
rejected = 0
matrix size = 4
fillins = 0
solver = Normal
Matrix Compiler1: 100 bytes object code size  0.0/0.1/[0.0]
Matrix Compiler2: 248 bytes object code size  0.0/0.0/[0.0]

