Circuit: * C:\Users\Marcelo\Documents\GitHub\TP1_Electro1\1erParte\c.Transistor Bipolar\Simulacion\Sim_Transistor.asc

.step vbb=0.8
.step vbb=1.2
.step vbb=1.6
.step vbb=2

Date: Wed Sep 05 13:24:06 2018
Total elapsed time: 0.109 seconds.

tnom = 27
temp = 27
method = trap
totiter = 256
traniter = 0
tranpoints = 0
accept = 0
rejected = 0
matrix size = 9
fillins = 0
solver = Normal
Matrix Compiler1:      26 opcodes  0.1/0.0/[0.0]
Matrix Compiler2: off  [0.0]/0.1/0.1

