Circuit: * C:\Users\Marcelo\Documents\GitHub\TP1_Electro1\1erParte\c.Transistor Bipolar\Simulacion\Sim_Transistor.asc

.step vbb=0.8
.step vbb=1
.step vbb=1.2
.step vbb=1.4

Date: Sun Sep 16 14:31:43 2018
Total elapsed time: 0.063 seconds.

tnom = 27
temp = 27
method = trap
totiter = 257
traniter = 0
tranpoints = 0
accept = 0
rejected = 0
matrix size = 9
fillins = 0
solver = Normal
Matrix Compiler1:      26 opcodes  0.1/0.0/[0.0]
Matrix Compiler2: off  [0.0]/0.1/0.1

